data_image0
_chemical_formula_structural       Cu120OCH3
_chemical_formula_sum              "Cu120 O1 C1 H3"
_cell_length_a       15.4716
_cell_length_b       12.893
_cell_length_c       25.4701
_cell_angle_alpha    90.0
_cell_angle_beta     90.0
_cell_angle_gamma    90.0

_space_group_name_H-M_alt    "P 1"
_space_group_IT_number       1

loop_
  _space_group_symop_operation_xyz
  'x, y, z'

loop_
  _atom_site_type_symbol
  _atom_site_label
  _atom_site_symmetry_multiplicity
  _atom_site_fract_x
  _atom_site_fract_y
  _atom_site_fract_z
  _atom_site_occupancy
  Cu  Cu1       1.0  0.0  0.0  0.07159  1.0000
  Cu  Cu2       1.0  0.0  0.0  0.21228  1.0000
  Cu  Cu3       1.0  0.08333  0.1  0.0  1.0000
  Cu  Cu4       1.0  0.08353  0.09997  0.14316  1.0000
  Cu  Cu5       1.0  0.16666999999999998  0.0  0.07159  1.0000
  Cu  Cu6       1.0  0.16657  0.0  0.21220999999999998  1.0000
  Cu  Cu7       1.0  0.25  0.1  0.0  1.0000
  Cu  Cu8       1.0  0.25  0.10001000000000003  0.14316  1.0000
  Cu  Cu9       1.0  0.33333  0.0  0.07159  1.0000
  Cu  Cu10      1.0  0.33343  0.0  0.21220999999999998  1.0000
  Cu  Cu11      1.0  0.41667  0.1  0.0  1.0000
  Cu  Cu12      1.0  0.4164699999999999  0.09997  0.14316  1.0000
  Cu  Cu13      1.0  0.5  0.0  0.07159  1.0000
  Cu  Cu14      1.0  0.5  0.0  0.21228  1.0000
  Cu  Cu15      1.0  0.5833299999999998  0.1  0.0  1.0000
  Cu  Cu16      1.0  0.58353  0.09997  0.14316  1.0000
  Cu  Cu17      1.0  0.6666699999999998  0.0  0.07159  1.0000
  Cu  Cu18      1.0  0.66657  0.0  0.21220999999999998  1.0000
  Cu  Cu19      1.0  0.75  0.1  0.0  1.0000
  Cu  Cu20      1.0  0.75  0.10001000000000003  0.14316  1.0000
  Cu  Cu21      1.0  0.83333  0.0  0.07159  1.0000
  Cu  Cu22      1.0  0.8334299999999998  0.0  0.21220999999999998  1.0000
  Cu  Cu23      1.0  0.91667  0.1  0.0  1.0000
  Cu  Cu24      1.0  0.91647  0.09997  0.14316  1.0000
  Cu  Cu25      1.0  0.0  0.2  0.07159  1.0000
  Cu  Cu26      1.0  0.0  0.20004  0.21224  1.0000
  Cu  Cu27      1.0  0.08333  0.3  0.0  1.0000
  Cu  Cu28      1.0  0.08341  0.2999  0.14316  1.0000
  Cu  Cu29      1.0  0.16666999999999998  0.2  0.07159  1.0000
  Cu  Cu30      1.0  0.16659  0.2  0.21220999999999998  1.0000
  Cu  Cu31      1.0  0.25  0.3  0.0  1.0000
  Cu  Cu32      1.0  0.25  0.30003  0.14316  1.0000
  Cu  Cu33      1.0  0.33333  0.2  0.07159  1.0000
  Cu  Cu34      1.0  0.33341  0.2  0.21220999999999998  1.0000
  Cu  Cu35      1.0  0.41667  0.3  0.0  1.0000
  Cu  Cu36      1.0  0.41658  0.2999  0.14316  1.0000
  Cu  Cu37      1.0  0.5  0.2  0.07159  1.0000
  Cu  Cu38      1.0  0.5  0.20003000000000004  0.21224  1.0000
  Cu  Cu39      1.0  0.5833299999999998  0.3  0.0  1.0000
  Cu  Cu40      1.0  0.5834199999999998  0.2999  0.14316  1.0000
  Cu  Cu41      1.0  0.6666699999999998  0.2  0.07159  1.0000
  Cu  Cu42      1.0  0.6665899999999998  0.2  0.21220999999999998  1.0000
  Cu  Cu43      1.0  0.75  0.3  0.0  1.0000
  Cu  Cu44      1.0  0.75  0.30003  0.14317  1.0000
  Cu  Cu45      1.0  0.83333  0.2  0.07159  1.0000
  Cu  Cu46      1.0  0.83341  0.2  0.21220999999999998  1.0000
  Cu  Cu47      1.0  0.91667  0.3  0.0  1.0000
  Cu  Cu48      1.0  0.91659  0.2999  0.14316  1.0000
  Cu  Cu49      1.0  0.0  0.4  0.07159  1.0000
  Cu  Cu50      1.0  0.0  0.4000400000000001  0.21226  1.0000
  Cu  Cu51      1.0  0.08333  0.5  0.0  1.0000
  Cu  Cu52      1.0  0.08339  0.5  0.14317  1.0000
  Cu  Cu53      1.0  0.16666999999999998  0.4  0.07159  1.0000
  Cu  Cu54      1.0  0.16662  0.40001000000000003  0.21222  1.0000
  Cu  Cu55      1.0  0.25  0.5  0.0  1.0000
  Cu  Cu56      1.0  0.25  0.5  0.14316  1.0000
  Cu  Cu57      1.0  0.33333  0.4  0.07159  1.0000
  Cu  Cu58      1.0  0.3333799999999999  0.40001000000000003  0.21222  1.0000
  Cu  Cu59      1.0  0.41667  0.5  0.0  1.0000
  Cu  Cu60      1.0  0.41661  0.5  0.14317  1.0000
  Cu  Cu61      1.0  0.5  0.4  0.07159  1.0000
  Cu  Cu62      1.0  0.5  0.4000400000000001  0.21226  1.0000
  Cu  Cu63      1.0  0.5833299999999998  0.5  0.0  1.0000
  Cu  Cu64      1.0  0.58339  0.5  0.14317  1.0000
  Cu  Cu65      1.0  0.6666699999999998  0.4  0.07159  1.0000
  Cu  Cu66      1.0  0.66662  0.40001000000000003  0.21222  1.0000
  Cu  Cu67      1.0  0.75  0.5  0.0  1.0000
  Cu  Cu68      1.0  0.75  0.5  0.14316  1.0000
  Cu  Cu69      1.0  0.83333  0.4  0.07159  1.0000
  Cu  Cu70      1.0  0.83338  0.40001000000000003  0.21222  1.0000
  Cu  Cu71      1.0  0.91667  0.5  0.0  1.0000
  Cu  Cu72      1.0  0.9166099999999998  0.5  0.14317  1.0000
  Cu  Cu73      1.0  0.0  0.6  0.07159  1.0000
  Cu  Cu74      1.0  0.0  0.59996  0.21226  1.0000
  Cu  Cu75      1.0  0.08333  0.7  0.0  1.0000
  Cu  Cu76      1.0  0.08342  0.7001  0.14316  1.0000
  Cu  Cu77      1.0  0.16666999999999998  0.6  0.07159  1.0000
  Cu  Cu78      1.0  0.16662  0.59999  0.21222  1.0000
  Cu  Cu79      1.0  0.25  0.7  0.0  1.0000
  Cu  Cu80      1.0  0.25  0.69997  0.14317  1.0000
  Cu  Cu81      1.0  0.33333  0.6  0.07159  1.0000
  Cu  Cu82      1.0  0.3333799999999999  0.59999  0.21222  1.0000
  Cu  Cu83      1.0  0.41667  0.7  0.0  1.0000
  Cu  Cu84      1.0  0.41658  0.7001  0.14316  1.0000
  Cu  Cu85      1.0  0.5  0.6  0.07159  1.0000
  Cu  Cu86      1.0  0.5  0.59996  0.21226  1.0000
  Cu  Cu87      1.0  0.5833299999999998  0.7  0.0  1.0000
  Cu  Cu88      1.0  0.5834199999999998  0.7001  0.14316  1.0000
  Cu  Cu89      1.0  0.6666699999999998  0.6  0.07159  1.0000
  Cu  Cu90      1.0  0.66662  0.59999  0.21222  1.0000
  Cu  Cu91      1.0  0.75  0.7  0.0  1.0000
  Cu  Cu92      1.0  0.75  0.69997  0.14317  1.0000
  Cu  Cu93      1.0  0.83333  0.6  0.07159  1.0000
  Cu  Cu94      1.0  0.83338  0.59999  0.21222  1.0000
  Cu  Cu95      1.0  0.91667  0.7  0.0  1.0000
  Cu  Cu96      1.0  0.91658  0.7001  0.14316  1.0000
  Cu  Cu97      1.0  0.0  0.8  0.07159  1.0000
  Cu  Cu98      1.0  0.0  0.79996  0.21224  1.0000
  Cu  Cu99      1.0  0.08333  0.9000000000000001  0.0  1.0000
  Cu  Cu100     1.0  0.08353  0.90003  0.14316  1.0000
  Cu  Cu101     1.0  0.16666999999999998  0.8  0.07159  1.0000
  Cu  Cu102     1.0  0.16659  0.8  0.21220999999999998  1.0000
  Cu  Cu103     1.0  0.25  0.9000000000000001  0.0  1.0000
  Cu  Cu104     1.0  0.25  0.89999  0.14316  1.0000
  Cu  Cu105     1.0  0.33333  0.8  0.07159  1.0000
  Cu  Cu106     1.0  0.33341  0.8  0.21220999999999998  1.0000
  Cu  Cu107     1.0  0.41667  0.9000000000000001  0.0  1.0000
  Cu  Cu108     1.0  0.4164699999999999  0.90003  0.14316  1.0000
  Cu  Cu109     1.0  0.5  0.8  0.07159  1.0000
  Cu  Cu110     1.0  0.5  0.7999700000000001  0.21224  1.0000
  Cu  Cu111     1.0  0.5833299999999998  0.9000000000000001  0.0  1.0000
  Cu  Cu112     1.0  0.58353  0.90003  0.14316  1.0000
  Cu  Cu113     1.0  0.6666699999999998  0.8  0.07159  1.0000
  Cu  Cu114     1.0  0.6665899999999998  0.8  0.21220999999999998  1.0000
  Cu  Cu115     1.0  0.75  0.9000000000000001  0.0  1.0000
  Cu  Cu116     1.0  0.75  0.89999  0.14316  1.0000
  Cu  Cu117     1.0  0.83333  0.8  0.07159  1.0000
  Cu  Cu118     1.0  0.83341  0.8  0.21220999999999998  1.0000
  Cu  Cu119     1.0  0.91667  0.9000000000000001  0.0  1.0000
  Cu  Cu120     1.0  0.91648  0.90003  0.14316  1.0000
  O   O1        1.0  0.12256691124382739  0.35512  0.2966986600366709  1.0000
  C   C1        1.0  0.5777369112438274  0.30007  0.28018866003667087  1.0000
  H   H1        1.0  0.6283269112438273  0.24282  0.2891086600366709  1.0000
  H   H2        1.0  0.5181669112438274  0.27997  0.3018086600366709  1.0000
  H   H3        1.0  0.5996169112438273  0.3779200000000001  0.29250866003667086  1.0000
